256

Ni       0.00000000       0.00000000       0.00000000
Pt       1.92500000       1.92500000       0.00000000
Pt       1.92500000       0.00000000       1.92500000
Pt       0.00000000       1.92500000       1.92500000
Ni       0.00000000       0.00000000       3.85000000
Pt       1.92500000       1.92500000       3.85000000
Pt       1.92500000       0.00000000       5.77500000
Pt       0.00000000       1.92500000       5.77500000
Ni       0.00000000       0.00000000       7.70000000
Pt       1.92500000       1.92500000       7.70000000
Pt       1.92500000       0.00000000       9.62500000
Pt       0.00000000       1.92500000       9.62500000
Ni       0.00000000       0.00000000      11.55000000
Pt       1.92500000       1.92500000      11.55000000
Pt       1.92500000       0.00000000      13.47500000
Pt       0.00000000       1.92500000      13.47500000
Ni       0.00000000       3.85000000       0.00000000
Pt       1.92500000       5.77500000       0.00000000
Pt       1.92500000       3.85000000       1.92500000
Pt       0.00000000       5.77500000       1.92500000
Ni       0.00000000       3.85000000       3.85000000
Pt       1.92500000       5.77500000       3.85000000
Pt       1.92500000       3.85000000       5.77500000
Pt       0.00000000       5.77500000       5.77500000
Ni       0.00000000       3.85000000       7.70000000
Pt       1.92500000       5.77500000       7.70000000
Pt       1.92500000       3.85000000       9.62500000
Pt       0.00000000       5.77500000       9.62500000
Ni       0.00000000       3.85000000      11.55000000
Pt       1.92500000       5.77500000      11.55000000
Pt       1.92500000       3.85000000      13.47500000
Pt       0.00000000       5.77500000      13.47500000
Ni       0.00000000       7.70000000       0.00000000
Pt       1.92500000       9.62500000       0.00000000
Pt       1.92500000       7.70000000       1.92500000
Pt       0.00000000       9.62500000       1.92500000
Ni       0.00000000       7.70000000       3.85000000
Pt       1.92500000       9.62500000       3.85000000
Pt       1.92500000       7.70000000       5.77500000
Pt       0.00000000       9.62500000       5.77500000
Ni       0.00000000       7.70000000       7.70000000
Pt       1.92500000       9.62500000       7.70000000
Pt       1.92500000       7.70000000       9.62500000
Pt       0.00000000       9.62500000       9.62500000
Ni       0.00000000       7.70000000      11.55000000
Pt       1.92500000       9.62500000      11.55000000
Pt       1.92500000       7.70000000      13.47500000
Pt       0.00000000       9.62500000      13.47500000
Ni       0.00000000      11.55000000       0.00000000
Pt       1.92500000      13.47500000       0.00000000
Pt       1.92500000      11.55000000       1.92500000
Pt       0.00000000      13.47500000       1.92500000
Ni       0.00000000      11.55000000       3.85000000
Pt       1.92500000      13.47500000       3.85000000
Pt       1.92500000      11.55000000       5.77500000
Pt       0.00000000      13.47500000       5.77500000
Ni       0.00000000      11.55000000       7.70000000
Pt       1.92500000      13.47500000       7.70000000
Pt       1.92500000      11.55000000       9.62500000
Pt       0.00000000      13.47500000       9.62500000
Ni       0.00000000      11.55000000      11.55000000
Pt       1.92500000      13.47500000      11.55000000
Pt       1.92500000      11.55000000      13.47500000
Pt       0.00000000      13.47500000      13.47500000
Ni       3.85000000       0.00000000       0.00000000
Pt       5.77500000       1.92500000       0.00000000
Pt       5.77500000       0.00000000       1.92500000
Pt       3.85000000       1.92500000       1.92500000
Ni       3.85000000       0.00000000       3.85000000
Pt       5.77500000       1.92500000       3.85000000
Pt       5.77500000       0.00000000       5.77500000
Pt       3.85000000       1.92500000       5.77500000
Ni       3.85000000       0.00000000       7.70000000
Pt       5.77500000       1.92500000       7.70000000
Pt       5.77500000       0.00000000       9.62500000
Pt       3.85000000       1.92500000       9.62500000
Ni       3.85000000       0.00000000      11.55000000
Pt       5.77500000       1.92500000      11.55000000
Pt       5.77500000       0.00000000      13.47500000
Pt       3.85000000       1.92500000      13.47500000
Ni       3.85000000       3.85000000       0.00000000
Pt       5.77500000       5.77500000       0.00000000
Pt       5.77500000       3.85000000       1.92500000
Pt       3.85000000       5.77500000       1.92500000
Ni       3.85000000       3.85000000       3.85000000
Pt       5.77500000       5.77500000       3.85000000
Pt       5.77500000       3.85000000       5.77500000
Pt       3.85000000       5.77500000       5.77500000
Ni       3.85000000       3.85000000       7.70000000
Pt       5.77500000       5.77500000       7.70000000
Pt       5.77500000       3.85000000       9.62500000
Pt       3.85000000       5.77500000       9.62500000
Ni       3.85000000       3.85000000      11.55000000
Pt       5.77500000       5.77500000      11.55000000
Pt       5.77500000       3.85000000      13.47500000
Pt       3.85000000       5.77500000      13.47500000
Ni       3.85000000       7.70000000       0.00000000
Pt       5.77500000       9.62500000       0.00000000
Pt       5.77500000       7.70000000       1.92500000
Pt       3.85000000       9.62500000       1.92500000
Ni       3.85000000       7.70000000       3.85000000
Pt       5.77500000       9.62500000       3.85000000
Pt       5.77500000       7.70000000       5.77500000
Pt       3.85000000       9.62500000       5.77500000
Ni       3.85000000       7.70000000       7.70000000
Pt       5.77500000       9.62500000       7.70000000
Pt       5.77500000       7.70000000       9.62500000
Pt       3.85000000       9.62500000       9.62500000
Ni       3.85000000       7.70000000      11.55000000
Pt       5.77500000       9.62500000      11.55000000
Pt       5.77500000       7.70000000      13.47500000
Pt       3.85000000       9.62500000      13.47500000
Ni       3.85000000      11.55000000       0.00000000
Pt       5.77500000      13.47500000       0.00000000
Pt       5.77500000      11.55000000       1.92500000
Pt       3.85000000      13.47500000       1.92500000
Ni       3.85000000      11.55000000       3.85000000
Pt       5.77500000      13.47500000       3.85000000
Pt       5.77500000      11.55000000       5.77500000
Pt       3.85000000      13.47500000       5.77500000
Ni       3.85000000      11.55000000       7.70000000
Pt       5.77500000      13.47500000       7.70000000
Pt       5.77500000      11.55000000       9.62500000
Pt       3.85000000      13.47500000       9.62500000
Ni       3.85000000      11.55000000      11.55000000
Pt       5.77500000      13.47500000      11.55000000
Pt       5.77500000      11.55000000      13.47500000
Pt       3.85000000      13.47500000      13.47500000
Ni       7.70000000       0.00000000       0.00000000
Pt       9.62500000       1.92500000       0.00000000
Pt       9.62500000       0.00000000       1.92500000
Pt       7.70000000       1.92500000       1.92500000
Ni       7.70000000       0.00000000       3.85000000
Pt       9.62500000       1.92500000       3.85000000
Pt       9.62500000       0.00000000       5.77500000
Pt       7.70000000       1.92500000       5.77500000
Ni       7.70000000       0.00000000       7.70000000
Pt       9.62500000       1.92500000       7.70000000
Pt       9.62500000       0.00000000       9.62500000
Pt       7.70000000       1.92500000       9.62500000
Ni       7.70000000       0.00000000      11.55000000
Pt       9.62500000       1.92500000      11.55000000
Pt       9.62500000       0.00000000      13.47500000
Pt       7.70000000       1.92500000      13.47500000
Ni       7.70000000       3.85000000       0.00000000
Pt       9.62500000       5.77500000       0.00000000
Pt       9.62500000       3.85000000       1.92500000
Pt       7.70000000       5.77500000       1.92500000
Ni       7.70000000       3.85000000       3.85000000
Pt       9.62500000       5.77500000       3.85000000
Pt       9.62500000       3.85000000       5.77500000
Pt       7.70000000       5.77500000       5.77500000
Ni       7.70000000       3.85000000       7.70000000
Pt       9.62500000       5.77500000       7.70000000
Pt       9.62500000       3.85000000       9.62500000
Pt       7.70000000       5.77500000       9.62500000
Ni       7.70000000       3.85000000      11.55000000
Pt       9.62500000       5.77500000      11.55000000
Pt       9.62500000       3.85000000      13.47500000
Pt       7.70000000       5.77500000      13.47500000
Ni       7.70000000       7.70000000       0.00000000
Pt       9.62500000       9.62500000       0.00000000
Pt       9.62500000       7.70000000       1.92500000
Pt       7.70000000       9.62500000       1.92500000
Ni       7.70000000       7.70000000       3.85000000
Pt       9.62500000       9.62500000       3.85000000
Pt       9.62500000       7.70000000       5.77500000
Pt       7.70000000       9.62500000       5.77500000
Ni       7.70000000       7.70000000       7.70000000
Pt       9.62500000       9.62500000       7.70000000
Pt       9.62500000       7.70000000       9.62500000
Pt       7.70000000       9.62500000       9.62500000
Ni       7.70000000       7.70000000      11.55000000
Pt       9.62500000       9.62500000      11.55000000
Pt       9.62500000       7.70000000      13.47500000
Pt       7.70000000       9.62500000      13.47500000
Ni       7.70000000      11.55000000       0.00000000
Pt       9.62500000      13.47500000       0.00000000
Pt       9.62500000      11.55000000       1.92500000
Pt       7.70000000      13.47500000       1.92500000
Ni       7.70000000      11.55000000       3.85000000
Pt       9.62500000      13.47500000       3.85000000
Pt       9.62500000      11.55000000       5.77500000
Pt       7.70000000      13.47500000       5.77500000
Ni       7.70000000      11.55000000       7.70000000
Pt       9.62500000      13.47500000       7.70000000
Pt       9.62500000      11.55000000       9.62500000
Pt       7.70000000      13.47500000       9.62500000
Ni       7.70000000      11.55000000      11.55000000
Pt       9.62500000      13.47500000      11.55000000
Pt       9.62500000      11.55000000      13.47500000
Pt       7.70000000      13.47500000      13.47500000
Ni      11.55000000       0.00000000       0.00000000
Pt      13.47500000       1.92500000       0.00000000
Pt      13.47500000       0.00000000       1.92500000
Pt      11.55000000       1.92500000       1.92500000
Ni      11.55000000       0.00000000       3.85000000
Pt      13.47500000       1.92500000       3.85000000
Pt      13.47500000       0.00000000       5.77500000
Pt      11.55000000       1.92500000       5.77500000
Ni      11.55000000       0.00000000       7.70000000
Pt      13.47500000       1.92500000       7.70000000
Pt      13.47500000       0.00000000       9.62500000
Pt      11.55000000       1.92500000       9.62500000
Ni      11.55000000       0.00000000      11.55000000
Pt      13.47500000       1.92500000      11.55000000
Pt      13.47500000       0.00000000      13.47500000
Pt      11.55000000       1.92500000      13.47500000
Ni      11.55000000       3.85000000       0.00000000
Pt      13.47500000       5.77500000       0.00000000
Pt      13.47500000       3.85000000       1.92500000
Pt      11.55000000       5.77500000       1.92500000
Ni      11.55000000       3.85000000       3.85000000
Pt      13.47500000       5.77500000       3.85000000
Pt      13.47500000       3.85000000       5.77500000
Pt      11.55000000       5.77500000       5.77500000
Ni      11.55000000       3.85000000       7.70000000
Pt      13.47500000       5.77500000       7.70000000
Pt      13.47500000       3.85000000       9.62500000
Pt      11.55000000       5.77500000       9.62500000
Ni      11.55000000       3.85000000      11.55000000
Pt      13.47500000       5.77500000      11.55000000
Pt      13.47500000       3.85000000      13.47500000
Pt      11.55000000       5.77500000      13.47500000
Ni      11.55000000       7.70000000       0.00000000
Pt      13.47500000       9.62500000       0.00000000
Pt      13.47500000       7.70000000       1.92500000
Pt      11.55000000       9.62500000       1.92500000
Ni      11.55000000       7.70000000       3.85000000
Pt      13.47500000       9.62500000       3.85000000
Pt      13.47500000       7.70000000       5.77500000
Pt      11.55000000       9.62500000       5.77500000
Ni      11.55000000       7.70000000       7.70000000
Pt      13.47500000       9.62500000       7.70000000
Pt      13.47500000       7.70000000       9.62500000
Pt      11.55000000       9.62500000       9.62500000
Ni      11.55000000       7.70000000      11.55000000
Pt      13.47500000       9.62500000      11.55000000
Pt      13.47500000       7.70000000      13.47500000
Pt      11.55000000       9.62500000      13.47500000
Ni      11.55000000      11.55000000       0.00000000
Pt      13.47500000      13.47500000       0.00000000
Pt      13.47500000      11.55000000       1.92500000
Pt      11.55000000      13.47500000       1.92500000
Ni      11.55000000      11.55000000       3.85000000
Pt      13.47500000      13.47500000       3.85000000
Pt      13.47500000      11.55000000       5.77500000
Pt      11.55000000      13.47500000       5.77500000
Ni      11.55000000      11.55000000       7.70000000
Pt      13.47500000      13.47500000       7.70000000
Pt      13.47500000      11.55000000       9.62500000
Pt      11.55000000      13.47500000       9.62500000
Ni      11.55000000      11.55000000      11.55000000
Pt      13.47500000      13.47500000      11.55000000
Pt      13.47500000      11.55000000      13.47500000
Pt      11.55000000      13.47500000      13.47500000
